.MODEL DI_2N7002DW  NMOS( LEVEL=1 VTO=1.50 KP=32.0m  GAMMA=1.86
+ PHI=.75  LAMBDA=34.2u RD=0.448 RS=0.448
+ IS=57.5f  PB=0.800 MJ=0.460 CBD=44.5p 
+ CBS=53.4p  CGSO=24.0n CGDO=20.0n CGBO=176n  )  *   -- Assumes default L=100U W=100U --